[TITLE]

[JUNCTIONS]
;ID                      Elevation       Demand Pattern                 
 C1                                 0               0                            ;
 C1H1                               0    31.700646283 daily                      ;
 C1H2                               0    31.700646283 daily                      ;
 C1H3                               0    31.700646283 daily                      ;
 C1H4                               0    31.700646283 daily                      ;
 C1H5                               0    31.700646283 daily                      ;
 C2                                 0               0                            ;
 C2H1                               0    31.700646283 daily                      ;
 C2H2                               0    31.700646283 daily                      ;
 C2H3                               0    31.700646283 daily                      ;
 C2H4                               0    31.700646283 daily                      ;
 C2H5                               0    31.700646283 daily                      ;
 C3                                 0               0                            ;
 C3H1                               0    31.700646283 daily                      ;
 C3H2                               0    31.700646283 daily                      ;
 C3H3                               0    31.700646283 daily                      ;
 C3H4                               0    31.700646283 daily                      ;
 C3H5                               0    31.700646283 daily                      ;
 C4                                 0               0                            ;
 C4H1                               0    31.700646283 daily                      ;
 C4H2                               0    31.700646283 daily                      ;
 C4H3                               0    31.700646283 daily                      ;
 C4H4                               0    31.700646283 daily                      ;
 C4H5                               0    31.700646283 daily                      ;
 C5                                 0               0                            ;
 C5H1                               0    31.700646283 daily                      ;
 C5H2                               0    31.700646283 daily                      ;
 C5H3                               0    31.700646283 daily                      ;
 C5H4                               0    31.700646283 daily                      ;
 C5H5                               0    31.700646283 daily                      ;
 C6                                 0               0                            ;
 C6H1                               0    31.700646283 daily                      ;
 C6H2                               0    31.700646283 daily                      ;
 C6H3                               0    31.700646283 daily                      ;
 C6H4                               0    31.700646283 daily                      ;
 C6H5                               0    31.700646283 daily                      ;
 C7                                 0               0                            ;
 C7H1                               0    31.700646283 daily                      ;
 C7H2                               0    31.700646283 daily                      ;
 C7H3                               0    31.700646283 daily                      ;
 C7H4                               0    31.700646283 daily                      ;
 C7H5                               0    31.700646283 daily                      ;
 C8                                 0               0                            ;
 C8H1                               0    31.700646283 daily                      ;
 C8H2                               0    31.700646283 daily                      ;
 C8H3                               0    31.700646283 daily                      ;
 C8H4                               0    31.700646283 daily                      ;
 C8H5                               0    31.700646283 daily                      ;
 C9                                 0               0                            ;
 C9H1                               0    31.700646283 daily                      ;
 C9H2                               0    31.700646283 daily                      ;
 C9H3                               0    31.700646283 daily                      ;
 C9H4                               0    31.700646283 daily                      ;
 C9H5                               0    31.700646283 daily                      ;
 C10                                0               0                            ;
 C10H1                              0    31.700646283 daily                      ;
 C10H2                              0    31.700646283 daily                      ;
 C10H3                              0    31.700646283 daily                      ;
 C10H4                              0    31.700646283 daily                      ;
 C10H5                              0    31.700646283 daily                      ;

[RESERVOIRS]
;ID                                   Head                  Pattern

[TANKS]
;ID                              Elevation           Init Level            Min Level            Max Level             Diameter           Min Volume Volume Curve         Overflow            
 Tank                     32.80839895    49.212598425    16.404199475      65.6167979     98.42519685               0 *                    YES                    ;

[PIPES]
;ID                   Node1                Node2                              Length             Diameter            Roughness           Minor Loss               Status
 P_Tank_1             Tank                 C1                       524.9343832     7.874015748             100               0                 Open   ;
 P_1_1                C1                   C1H1                    164.04199475     3.937007874             100               0                 Open   ;
 P_1_2                C1                   C1H2                    164.04199475     3.937007874             100               0                 Open   ;
 P_1_3                C1                   C1H3                    164.04199475     3.937007874             100               0                 Open   ;
 P_1_4                C1                   C1H4                    164.04199475     3.937007874             100               0                 Open   ;
 P_1_5                C1                   C1H5                    164.04199475     3.937007874             100               0                 Open   ;
 P_Tank_2             Tank                 C2                      557.74278215     7.874015748             100               0                 Open   ;
 P_2_1                C2                   C2H1                    164.04199475     3.937007874             100               0                 Open   ;
 P_2_2                C2                   C2H2                    164.04199475     3.937007874             100               0                 Open   ;
 P_2_3                C2                   C2H3                    164.04199475     3.937007874             100               0                 Open   ;
 P_2_4                C2                   C2H4                    164.04199475     3.937007874             100               0                 Open   ;
 P_2_5                C2                   C2H5                    164.04199475     3.937007874             100               0                 Open   ;
 P_Tank_3             Tank                 C3                       590.5511811     7.874015748             100               0                 Open   ;
 P_3_1                C3                   C3H1                    164.04199475     3.937007874             100               0                 Open   ;
 P_3_2                C3                   C3H2                    164.04199475     3.937007874             100               0                 Open   ;
 P_3_3                C3                   C3H3                    164.04199475     3.937007874             100               0                 Open   ;
 P_3_4                C3                   C3H4                    164.04199475     3.937007874             100               0                 Open   ;
 P_3_5                C3                   C3H5                    164.04199475     3.937007874             100               0                 Open   ;
 P_Tank_4             Tank                 C4                      623.35958005     7.874015748             100               0                 Open   ;
 P_4_1                C4                   C4H1                    164.04199475     3.937007874             100               0                 Open   ;
 P_4_2                C4                   C4H2                    164.04199475     3.937007874             100               0                 Open   ;
 P_4_3                C4                   C4H3                    164.04199475     3.937007874             100               0                 Open   ;
 P_4_4                C4                   C4H4                    164.04199475     3.937007874             100               0                 Open   ;
 P_4_5                C4                   C4H5                    164.04199475     3.937007874             100               0                 Open   ;
 P_Tank_5             Tank                 C5                        656.167979     7.874015748             100               0                 Open   ;
 P_5_1                C5                   C5H1                    164.04199475     3.937007874             100               0                 Open   ;
 P_5_2                C5                   C5H2                    164.04199475     3.937007874             100               0                 Open   ;
 P_5_3                C5                   C5H3                    164.04199475     3.937007874             100               0                 Open   ;
 P_5_4                C5                   C5H4                    164.04199475     3.937007874             100               0                 Open   ;
 P_5_5                C5                   C5H5                    164.04199475     3.937007874             100               0                 Open   ;
 P_Tank_6             Tank                 C6                      688.97637795     7.874015748             100               0                 Open   ;
 P_6_1                C6                   C6H1                    164.04199475     3.937007874             100               0                 Open   ;
 P_6_2                C6                   C6H2                    164.04199475     3.937007874             100               0                 Open   ;
 P_6_3                C6                   C6H3                    164.04199475     3.937007874             100               0                 Open   ;
 P_6_4                C6                   C6H4                    164.04199475     3.937007874             100               0                 Open   ;
 P_6_5                C6                   C6H5                    164.04199475     3.937007874             100               0                 Open   ;
 P_Tank_7             Tank                 C7                       721.7847769     7.874015748             100               0                 Open   ;
 P_7_1                C7                   C7H1                    164.04199475     3.937007874             100               0                 Open   ;
 P_7_2                C7                   C7H2                    164.04199475     3.937007874             100               0                 Open   ;
 P_7_3                C7                   C7H3                    164.04199475     3.937007874             100               0                 Open   ;
 P_7_4                C7                   C7H4                    164.04199475     3.937007874             100               0                 Open   ;
 P_7_5                C7                   C7H5                    164.04199475     3.937007874             100               0                 Open   ;
 P_Tank_8             Tank                 C8                      754.59317585     7.874015748             100               0                 Open   ;
 P_8_1                C8                   C8H1                    164.04199475     3.937007874             100               0                 Open   ;
 P_8_2                C8                   C8H2                    164.04199475     3.937007874             100               0                 Open   ;
 P_8_3                C8                   C8H3                    164.04199475     3.937007874             100               0                 Open   ;
 P_8_4                C8                   C8H4                    164.04199475     3.937007874             100               0                 Open   ;
 P_8_5                C8                   C8H5                    164.04199475     3.937007874             100               0                 Open   ;
 P_Tank_9             Tank                 C9                       787.4015748     7.874015748             100               0                 Open   ;
 P_9_1                C9                   C9H1                    164.04199475     3.937007874             100               0                 Open   ;
 P_9_2                C9                   C9H2                    164.04199475     3.937007874             100               0                 Open   ;
 P_9_3                C9                   C9H3                    164.04199475     3.937007874             100               0                 Open   ;
 P_9_4                C9                   C9H4                    164.04199475     3.937007874             100               0                 Open   ;
 P_9_5                C9                   C9H5                    164.04199475     3.937007874             100               0                 Open   ;
 P_Tank_10            Tank                 C10                     820.20997375     7.874015748             100               0                 Open   ;
 P_10_1               C10                  C10H1                   164.04199475     3.937007874             100               0                 Open   ;
 P_10_2               C10                  C10H2                   164.04199475     3.937007874             100               0                 Open   ;
 P_10_3               C10                  C10H3                   164.04199475     3.937007874             100               0                 Open   ;
 P_10_4               C10                  C10H4                   164.04199475     3.937007874             100               0                 Open   ;
 P_10_5               C10                  C10H5                   164.04199475     3.937007874             100               0                 Open   ;

[PUMPS]
;ID                   Node1                Node2                Properties          

[VALVES]
;ID                   Node1                Node2                            Diameter Type              Setting           Minor Loss

[TAGS]
;type      name       tag       

[DEMANDS]
;ID        Demand     Pattern   

[STATUS]
;ID        Setting   

[PATTERNS]
;ID        Multipliers

daily 0.600000 0.700000 0.800000 1.000000 1.200000 1.400000
daily 1.500000 1.300000 1.000000 0.800000 0.700000 0.600000
daily 0.600000 0.700000 0.800000 1.000000 1.200000 1.400000
daily 1.500000 1.300000 1.000000 0.800000 0.700000 0.600000

[CURVES]
;ID         X-Value      Y-Value     

[CONTROLS]

[RULES]

[ENERGY]
GLOBAL PRICE           0.0000

[EMITTERS]
;ID        Flow coefficient

[QUALITY]

[SOURCES]
;Node      Type       Quality    Pattern   

[REACTIONS]
;Type           Pipe/Tank               Coefficient

 ORDER BULK 1
 ORDER TANK 1
 ORDER WALL 1
 GLOBAL BULK 0.0000    
 GLOBAL WALL 0.0000    

[MIXING]
;Tank ID             Model Fraction

[TIMES]
DURATION             00:00:00
HYDRAULIC TIMESTEP   01:00:00
QUALITY TIMESTEP     00:06:00
PATTERN TIMESTEP     01:00:00
PATTERN START        00:00:00
REPORT TIMESTEP      01:00:00
REPORT START         00:00:00
START CLOCKTIME      00:00:00 AM
RULE TIMESTEP        00:06:00
STATISTIC            NONE      

[REPORT]

[OPTIONS]
UNITS                GPM                 
HEADLOSS             H-W                 
SPECIFIC GRAVITY     1
VISCOSITY            1
TRIALS               200
ACCURACY             0.001
CHECKFREQ            2
MAXCHECK             10
UNBALANCED           STOP                
PATTERN              1                   
DEMAND MULTIPLIER    1
EMITTER EXPONENT     0.5
QUALITY              NONE                
DIFFUSIVITY          1
TOLERANCE            0.01

[COORDINATES]
;Node      X-Coord    Y-Coord   
Tank                0.000000000          0.000000000
C1                200.000000000          0.000000000
C1H1              200.000000000         30.000000000
C1H2              200.000000000         60.000000000
C1H3              200.000000000         90.000000000
C1H4              200.000000000        120.000000000
C1H5              200.000000000        150.000000000
C2                400.000000000          0.000000000
C2H1              400.000000000         30.000000000
C2H2              400.000000000         60.000000000
C2H3              400.000000000         90.000000000
C2H4              400.000000000        120.000000000
C2H5              400.000000000        150.000000000
C3                600.000000000          0.000000000
C3H1              600.000000000         30.000000000
C3H2              600.000000000         60.000000000
C3H3              600.000000000         90.000000000
C3H4              600.000000000        120.000000000
C3H5              600.000000000        150.000000000
C4                800.000000000          0.000000000
C4H1              800.000000000         30.000000000
C4H2              800.000000000         60.000000000
C4H3              800.000000000         90.000000000
C4H4              800.000000000        120.000000000
C4H5              800.000000000        150.000000000
C5               1000.000000000          0.000000000
C5H1             1000.000000000         30.000000000
C5H2             1000.000000000         60.000000000
C5H3             1000.000000000         90.000000000
C5H4             1000.000000000        120.000000000
C5H5             1000.000000000        150.000000000
C6               1200.000000000          0.000000000
C6H1             1200.000000000         30.000000000
C6H2             1200.000000000         60.000000000
C6H3             1200.000000000         90.000000000
C6H4             1200.000000000        120.000000000
C6H5             1200.000000000        150.000000000
C7               1400.000000000          0.000000000
C7H1             1400.000000000         30.000000000
C7H2             1400.000000000         60.000000000
C7H3             1400.000000000         90.000000000
C7H4             1400.000000000        120.000000000
C7H5             1400.000000000        150.000000000
C8               1600.000000000          0.000000000
C8H1             1600.000000000         30.000000000
C8H2             1600.000000000         60.000000000
C8H3             1600.000000000         90.000000000
C8H4             1600.000000000        120.000000000
C8H5             1600.000000000        150.000000000
C9               1800.000000000          0.000000000
C9H1             1800.000000000         30.000000000
C9H2             1800.000000000         60.000000000
C9H3             1800.000000000         90.000000000
C9H4             1800.000000000        120.000000000
C9H5             1800.000000000        150.000000000
C10              2000.000000000          0.000000000
C10H1            2000.000000000         30.000000000
C10H2            2000.000000000         60.000000000
C10H3            2000.000000000         90.000000000
C10H4            2000.000000000        120.000000000
C10H5            2000.000000000        150.000000000

[VERTICES]
;Link      X-Coord    Y-Coord   

[LABELS]

[BACKDROP]
UNITS    NONE

[END]
